LAMMPS (22 Aug 2018)
units	metal
boundary p p p
atom_style full
bond_style harmonic
angle_style harmonic
dihedral_style opls
restart 1000 rst.1 rst.2
variable		cut_off equal 10.0
timestep	    1e-3
read_restart  ./NPT.rst
  restoring atom style full from restart
  orthogonal box = (-4.79789 -4.79789 -18.9799) to (65.8012 65.8012 167.023)
  restoring pair style hybrid/overlay from restart
  restoring bond style harmonic from restart
  restoring angle style harmonic from restart
  restoring dihedral style opls from restart
  24000 atoms
  13680 bonds
  25920 angles
  32400 dihedrals
include '../bond.coeff'
## IPA bond information in metal units (energy ev)

#Bond Coeffs

bond_coeff   1  11.63090054    1.5290 # C3H-C2H
bond_coeff   2  14.75564412    1.0900 # C3H-H
bond_coeff   3  11.63090054    1.5290 # C2H-C2H
bond_coeff   4  14.75564412    1.0900 # C2H-H

#Angle Coeffs

angle_coeff   1   2.53231622  112.7000 # C3H-C2H-C2H
angle_coeff   2   1.62746094  110.7000 # C3H-C2H-H
angle_coeff   3   1.62746094  110.7000 # C2H-C3H-H
angle_coeff   4   2.53231622  112.7000 # C2H-C2H-C2H
angle_coeff   5   1.62746094  110.7000 # C2H-C2H-H
angle_coeff   6   1.43214358  107.8000 # H-C3H-H
angle_coeff   7   1.43214358  107.8000 # H-C2H-H

#Dihedral Coeffs

dihedral_coeff   1    0.07551166	-0.0068138			0.0121086	0 # C3H-C2H-C2H-C2H
dihedral_coeff   2    0				0					0.0158844	0 # C3H-C2H-C2H-H
dihedral_coeff   3    0.07551166	-0.0068138			0.0121086	0 # C2H-C2H-C2H-C2H
dihedral_coeff   4    0				0					0.0158844	0 # C2H-C2H-C2H-H
dihedral_coeff   5    0				0					0.0158844	0 # H-C3H-C2H-C2H
dihedral_coeff   6    0				0					0.0138012	0 # H-C3H-C2H-H
dihedral_coeff   7    0				0					0.0138012	0 # H-C2H-C2H-H

## metal time unit is picoseconds, 1 ps = 1000 fs,
## engery unit is eV, 1 ev = 23 kcal/mol       1 kcal/mol = 0.043 ev
pair_style    	hybrid/overlay lj/cut/coul/long 10 10  buck/coul/long 10 table linear 39901
pair_modify mix geometric
special_bonds lj/coul 0.0 0.0 0.5
kspace_style pppm 1.0e-4
fix fSHAKE all shake 0.0001 20 0 b 2 4 # modified to the hexane shaked bond information
include '../pair.coeff_silica'

pair_coeff    	4 4 buck/coul/long 0.0 1.0 0.0                #No interactions between Si atoms
pair_coeff   	4 5 buck/coul/long 18003.757200 0.205205 133.538100
pair_coeff    	5 5 buck/coul/long 1388.773000  0.362319 175.000000         #BKS interaction in PRL 64 1955 (1990)
pair_modify   	shift yes
pair_coeff    	4 5 table ../potential_SiO2.TPF Si-O 10
pair_coeff    	5 5 table ../potential_SiO2.TPF O-O 10
  Should only be flagged at inflection points (../pair_table.cpp:481)
include '../pair.coeff_mix'
pair_coeff  1  1   lj/cut/coul/long    0.00286440    3.50000000
pair_coeff  1  2   lj/cut/coul/long    0.00286440    3.50000000
pair_coeff  1  3   lj/cut/coul/long    0.00193118    3.00000000
pair_coeff  1  4   lj/cut/coul/long    0.00223045    3.77671685
pair_coeff  1  5   lj/cut/coul/long    0.00532389    3.17989244

pair_coeff  2  2   lj/cut/coul/long    0.00286440    3.50000000
pair_coeff  2  3   lj/cut/coul/long    0.00193118    3.00000000
pair_coeff  2  4   lj/cut/coul/long    0.00223045    3.77671685
pair_coeff  2  5   lj/cut/coul/long    0.00532389    3.17989244

pair_coeff  3  3   lj/cut/coul/long    0.00130200    2.50000000
pair_coeff  3  4   lj/cut/coul/long    0.00150377    3.27671685
pair_coeff  3  5   lj/cut/coul/long    0.00358937    2.67989244

# change this for different systems
group liquid type 1 2 3
14400 atoms in group liquid
group silica type 4 5
9600 atoms in group silica

neighbor		3.0 bin
neigh_modify	check yes every 1 delay 0 page  100000 one 10000

reset_timestep 	0
variable    dt equal 0.001
timestep     0.001
variable T equal 300
# 1 pascal is equal to 9.8692316931427E-6 atm, or 1.0E-5 bar.
variable           vhigh            equal    1.0
variable           vlow             equal    0.0
variable           bar2Pa           equal    1e5
variable           ps2s             equal    1.0e-12
variable           PaS2mPaS         equal    1000
variable           viscoeff         equal    v_bar2Pa*v_ps2s*v_PaS2mPaS

variable    p equal 400     # correlation length
variable    s equal 5       # sample interval
variable    d equal $p*$s   # dump interval
variable    d equal 400*$s
variable    d equal 400*5

# convert from LAMMPS real units to SI
variable    kB equal 1.3806504e-23    # [J/K] Boltzmann
variable    atm2Pa equal 101325.0
variable    A2m equal 1.0e-10
variable    fs2s equal 1.0e-15
# convert from LAMMPS metal units to SI
variable    convertM2S equal 100000*100000*1e-12*1e-10*1e-10*1e-10*1000

compute            per_liquid_vol          liquid     voronoi/atom
compute            liquid_vol              liquid     reduce   sum   c_per_liquid_vol[1]
variable           real_liquid_vol equal  c_liquid_vol
variable           real_liquid_thickness   equal      c_liquid_vol/(lx*ly)

compute    myPress  liquid stress/atom NULL
compute    p 		liquid reduce sum c_myPress[4] c_myPress[5] c_myPress[6] # sum the pxy pxz pyz

variable liquidvol equal 166202

fix       nveall 	all 	 	 	nve

variable lpxy equal c_p[1]/166202
variable lpxz equal c_p[2]/166202
variable lpyz equal c_p[3]/166202

fix          SS all ave/correlate $s $p $d              v_lpxy v_lpxz v_lpyz type auto file S0St.dat ave running
fix          SS all ave/correlate 5 $p $d              v_lpxy v_lpxz v_lpyz type auto file S0St.dat ave running
fix          SS all ave/correlate 5 400 $d              v_lpxy v_lpxz v_lpyz type auto file S0St.dat ave running
fix          SS all ave/correlate 5 400 2000              v_lpxy v_lpxz v_lpyz type auto file S0St.dat ave running

variable     scale equal 1e-29/(1.3806504e-23*300)*5*0.001*166202

variable     v11 equal trap(f_SS[3])*2.00632494173277e-06
variable     v22 equal trap(f_SS[4])*2.00632494173277e-06
variable     v33 equal trap(f_SS[5])*2.00632494173277e-06

variable     vis equal (v_v11+v_v22+v_v33)/3.0

compute	     mobile liquid temp

thermo       $d
thermo       2000
thermo_style       custom step c_mobile temp press pe ke etotal  c_liquid_vol v_v11 v_v22 v_v33 v_vis
dump               3 all custom 20000 nve.lammpstrj id type x y z vx vy vz fx fy fz
run                5000000
PPPM initialization ...
  G vector (1/distance) = 0.272888
  grid = 45 45 90
  stencil order = 5
  estimated absolute RMS force accuracy = 0.00139845
  estimated relative force accuracy = 9.71167e-05
  3d grid and FFT values/proc = 9396 4050
Unused restart file global fix info:
  fix style: npt, fix ID: 1
  update every 1 steps, delay 0 steps, check yes
Step c_mobile Temp Press PotEng KinEng TotEng c_liquid_vol v_v11 v_v22 v_v33 v_vis
0    302.05252    302.91887   -64.491837   -183009.18    808.12699   -182201.05    166202.82   0.01667358   0.11724944   0.12792774  0.087283586
Averages over the last 1251 of 2501 rows, steps 2500000 to 5000000:
c_mobile Temp Press PotEng KinEng TotEng c_liquid_vol v_v11 v_v22 v_v33 v_vis
306.223 306.452 -85.4967 -183004 817.553 -182186 165932 0.809567 0.209764 0.222863 0.414065
Loop time of 220574 on 64 procs for 5000000 steps with 24000 atoms

undump             3
write_data 		   nve.data
PPPM initialization ...
  G vector (1/distance) = 0.272888
  grid = 45 45 90
  stencil order = 5
  estimated absolute RMS force accuracy = 0.00139845
  estimated relative force accuracy = 9.71167e-05
  3d grid and FFT values/proc = 9396 4050
  update every 1 steps, delay 0 steps, check yes
write_restart 	   nve.rst
PPPM initialization ...
  G vector (1/distance) = 0.272888
  grid = 45 45 90
  stencil order = 5
  estimated absolute RMS force accuracy = 0.00139845
  estimated relative force accuracy = 9.71167e-05
  3d grid and FFT values/proc = 9396 4050
  update every 1 steps, delay 0 steps, check yes
