LAMMPS (22 Aug 2018)
units	metal
boundary p p p
atom_style full
bond_style harmonic
angle_style harmonic
dihedral_style opls
restart 1000 rst.1 rst.2
variable		cut_off equal 10.0
timestep	    1e-3
read_restart  npt.rst
  restoring atom style full from restart
  orthogonal box = (-4.78383 -4.78383 -18.9428) to (65.7872 65.7872 166.986)
  restoring pair style hybrid/overlay from restart
  restoring bond style harmonic from restart
  restoring angle style harmonic from restart
  restoring dihedral style opls from restart
  24000 atoms
  13680 bonds
  25920 angles
  32400 dihedrals
include '../../bond.coeff'
## IPA bond information in metal units (energy ev)

#Bond Coeffs

bond_coeff   1  11.63090054    1.5290 # C3H-C2H
bond_coeff   2  14.75564412    1.0900 # C3H-H
bond_coeff   3  11.63090054    1.5290 # C2H-C2H
bond_coeff   4  14.75564412    1.0900 # C2H-H

#Angle Coeffs

angle_coeff   1   2.53231622  112.7000 # C3H-C2H-C2H
angle_coeff   2   1.62746094  110.7000 # C3H-C2H-H
angle_coeff   3   1.62746094  110.7000 # C2H-C3H-H
angle_coeff   4   2.53231622  112.7000 # C2H-C2H-C2H
angle_coeff   5   1.62746094  110.7000 # C2H-C2H-H
angle_coeff   6   1.43214358  107.8000 # H-C3H-H
angle_coeff   7   1.43214358  107.8000 # H-C2H-H

#Dihedral Coeffs

dihedral_coeff   1    0.07551166	-0.0068138			0.0121086	0 # C3H-C2H-C2H-C2H
dihedral_coeff   2    0				0					0.0158844	0 # C3H-C2H-C2H-H
dihedral_coeff   3    0.07551166	-0.0068138			0.0121086	0 # C2H-C2H-C2H-C2H
dihedral_coeff   4    0				0					0.0158844	0 # C2H-C2H-C2H-H
dihedral_coeff   5    0				0					0.0158844	0 # H-C3H-C2H-C2H
dihedral_coeff   6    0				0					0.0138012	0 # H-C3H-C2H-H
dihedral_coeff   7    0				0					0.0138012	0 # H-C2H-C2H-H

## metal time unit is picoseconds, 1 ps = 1000 fs,
## engery unit is eV, 1 ev = 23 kcal/mol       1 kcal/mol = 0.043 ev
pair_style    	hybrid/overlay lj/cut/coul/long 10 10  buck/coul/long 10 table linear 39901
pair_modify mix geometric
special_bonds lj/coul 0.0 0.0 0.5
kspace_style pppm 1.0e-4
fix fSHAKE all shake 0.0001 20 0 b 2 4 # modified to the hexane shaked bond information
include '../../pair.coeff_silica'

pair_coeff    	4 4 buck/coul/long 0.0 1.0 0.0                #No interactions between Si atoms
pair_coeff   	4 5 buck/coul/long 18003.757200 0.205205 133.538100
pair_coeff    	5 5 buck/coul/long 1388.773000  0.362319 175.000000         #BKS interaction in PRL 64 1955 (1990)
pair_modify   	shift yes
pair_coeff    	4 5 table potential_SiO2.TPF Si-O 10
pair_coeff    	5 5 table potential_SiO2.TPF O-O 10
  Should only be flagged at inflection points (../pair_table.cpp:481)
include '../../pair.coeff_mix'
pair_coeff  1  1   lj/cut/coul/long    0.00286440    3.50000000
pair_coeff  1  2   lj/cut/coul/long    0.00286440    3.50000000
pair_coeff  1  3   lj/cut/coul/long    0.00193118    3.00000000
pair_coeff  1  4   lj/cut/coul/long    0.00223045    3.77671685
pair_coeff  1  5   lj/cut/coul/long    0.00532389    3.17989244

pair_coeff  2  2   lj/cut/coul/long    0.00286440    3.50000000
pair_coeff  2  3   lj/cut/coul/long    0.00193118    3.00000000
pair_coeff  2  4   lj/cut/coul/long    0.00223045    3.77671685
pair_coeff  2  5   lj/cut/coul/long    0.00532389    3.17989244

pair_coeff  3  3   lj/cut/coul/long    0.00130200    2.50000000
pair_coeff  3  4   lj/cut/coul/long    0.00150377    3.27671685
pair_coeff  3  5   lj/cut/coul/long    0.00358937    2.67989244

neighbor		3.0 bin
neigh_modify	check yes every 1 delay 0 page  100000 one 10000

reset_timestep 	0

# change this for different systems
group liquid type 1 2 3
14400 atoms in group liquid
group silica type 4 5
9600 atoms in group silica

# change for different systems
region 1 block INF INF INF INF 60 75  # upper move region
region 2 block INF INF INF INF 0  14   # lower move region

region 3 block INF INF INF INF 35 60 # upper thermo region
region 4 block INF INF INF INF 14 35 # lower thermo region

group upper_move region 1
2854 atoms in group upper_move
group lower_move region 2
1722 atoms in group lower_move

group upper_thermo region 3
10584 atoms in group upper_thermo
group lower_thermo region 4
8840 atoms in group lower_thermo

group upper_wall_thermo subtract upper_thermo liquid
1946 atoms in group upper_wall_thermo
group lower_wall_thermo subtract lower_thermo liquid
3078 atoms in group lower_wall_thermo
group wall_thermo union upper_wall_thermo lower_wall_thermo
5024 atoms in group wall_thermo

# 1 pascal is equal to 9.8692316931427E-6 atm, or 1.0E-5 bar.
variable           vhigh            equal    2.0
variable           vlow             equal    0.0
variable           bar2Pa           equal    1e5
variable           ps2s             equal    1.0e-12
variable           PaS2mPaS         equal    1000
variable           viscoeff         equal    v_bar2Pa*v_ps2s*v_PaS2mPaS

fix       nveall 	all 	 	 	nve
fix       move1     upper_move 	    move  linear   2   0    0   units box
fix       move2     lower_move      move  linear   0    0    0   units box

# compute	     mobile liquid temp
# fix	    	 1 liquid temp/rescale 200 300.0 300.0 10 1.0
# fix_modify   1 temp mobile

compute            walltemp   wall_thermo    temp/partial 0 1 1
fix                lanfix    wall_thermo    langevin 300 300 1e-1 123456 tally yes
fix_modify         lanfix    temp   walltemp

compute	     mobile liquid temp

compute            per_liquid_vol          liquid     voronoi/atom
compute            liquid_vol              liquid     reduce   sum   c_per_liquid_vol[1]
variable           real_liquid_thickness   equal      c_liquid_vol/(lx*ly)

compute            1  liquid stress/atom mobile
compute            11 liquid reduce      sum  c_1[1]
compute            12 liquid reduce      sum  c_1[2]
compute            13 liquid reduce      sum  c_1[3]
compute            14 liquid reduce      sum  c_1[4]
compute            15 liquid reduce      sum  c_1[5]
compute            16 liquid reduce      sum  c_1[6]

variable           sigma1v 				   equal      c_15/c_liquid_vol
variable           visc01  				   equal      v_viscoeff*v_sigma1v/(2/v_real_liquid_thickness)

compute   10    liquid     chunk/atom   bin/1d  z    lower    0.5  units  box
fix       101   liquid     ave/chunk    100    20   2000   10   vx  density/mass density/number   norm  sample file  v.d.liquid

fix   pvis    liquid   ave/time     100     20     2000  v_visc01 c_11 c_12 c_13 c_14 c_15 c_16  file    viscosity.profile

thermo             100
thermo_style       custom step c_mobile temp press pe ke etotal density f_lanfix
dump               3 all custom 2000 nve.lammpstrj id type x y z vx vy vz fx fy fz
run                2000000
PPPM initialization ...
  G vector (1/distance) = 0.272921
  grid = 45 45 90
  stencil order = 5
  estimated absolute RMS force accuracy = 0.00139674
  estimated relative force accuracy = 9.69982e-05
  3d grid and FFT values/proc = 15138 6348
Unused restart file global fix info:
  fix style: npt, fix ID: 2
  update every 1 steps, delay 0 steps, check yes
Step c_mobile Temp Press PotEng KinEng TotEng Density f_lanfix
0    296.06343    298.54331   -79.986973   -183010.55    796.45388   -182214.09   0.45606776           -0
Averages over the last 10001 of 20001 rows, steps 1000000 to 2000000:
c_mobile Temp Press PotEng KinEng TotEng Density f_lanfix
327.125 255.798 -278.768 -182979 682.419 -182297 0.456068 1586.01
Loop time of 156539 on 32 procs for 2000000 steps with 24000 atoms

undump             3
write_data 		   nve.data
PPPM initialization ...
  G vector (1/distance) = 0.272921
  grid = 45 45 90
  stencil order = 5
  estimated absolute RMS force accuracy = 0.00139674
  estimated relative force accuracy = 9.69982e-05
  3d grid and FFT values/proc = 15138 6348
  update every 1 steps, delay 0 steps, check yes
write_restart 	   nve.rst
PPPM initialization ...
  G vector (1/distance) = 0.272921
  grid = 45 45 90
  stencil order = 5
  estimated absolute RMS force accuracy = 0.00139674
  estimated relative force accuracy = 9.69982e-05
  3d grid and FFT values/proc = 15138 6348
  update every 1 steps, delay 0 steps, check yes
